Version 4
SHEET 1 2344 2032
WIRE 1056 928 880 928
WIRE 1424 960 1296 960
WIRE 1056 976 1056 928
WIRE 1296 1072 1296 960
WIRE 960 1216 800 1216
WIRE 1056 1216 1056 1056
WIRE 1056 1216 1040 1216
WIRE 1120 1216 1104 1216
WIRE 1168 1216 1120 1216
WIRE 1296 1216 1296 1152
WIRE 1296 1216 1232 1216
WIRE 1504 1216 1296 1216
WIRE 800 1232 800 1216
WIRE 752 1280 704 1280
WIRE 912 1280 832 1280
WIRE 1056 1312 1056 1216
WIRE 1056 1312 784 1312
WIRE 1296 1312 1296 1216
WIRE 624 1360 560 1360
WIRE 704 1360 704 1280
WIRE 704 1360 688 1360
WIRE 720 1360 704 1360
WIRE 560 1408 560 1360
WIRE 784 1456 784 1408
WIRE 1120 1504 1120 1216
WIRE 560 1536 560 1488
FLAG 784 1456 0
FLAG 560 1536 0
FLAG 560 1360 IN
FLAG 880 1008 0
FLAG 1296 1392 0
FLAG 1424 1040 0
FLAG 912 1280 0
SYMBOL VOLTAGE 880 912 R0
WINDOW 0 -77 69 Left 2
WINDOW 123 0 0 Left 0
WINDOW 39 0 0 Left 0
SYMATTR InstName V1
SYMATTR Value 5
SYMBOL npn 720 1312 R0
WINDOW 0 54 32 Left 2
WINDOW 3 52 69 Left 2
SYMATTR InstName Q1
SYMATTR Value BC547A
SYMBOL voltage 560 1392 R0
WINDOW 123 0 0 Left 0
WINDOW 39 0 0 Left 0
SYMATTR InstName V3
SYMATTR Value SINE(0 0.06 1K)
SYMBOL cap 688 1344 R90
WINDOW 0 0 32 VBottom 2
WINDOW 3 32 32 VTop 2
SYMATTR InstName C
SYMATTR Value 100nF
SYMBOL res 1040 960 R0
SYMATTR InstName Rc1
SYMATTR Value 4.7k
SYMBOL cap 1120 1200 R90
WINDOW 0 0 32 VBottom 2
WINDOW 3 32 32 VTop 2
SYMATTR InstName C1
SYMATTR Value 10µF
SYMBOL VOLTAGE 1424 944 R0
WINDOW 0 -77 69 Left 2
WINDOW 123 0 0 Left 0
WINDOW 39 0 0 Left 0
SYMATTR InstName V2
SYMATTR Value 3.3
SYMBOL res 1280 1056 R0
SYMATTR InstName R2
SYMATTR Value 10k
SYMBOL res 1280 1296 R0
SYMATTR InstName R3
SYMATTR Value 10k
SYMBOL cap 1232 1200 R90
WINDOW 0 0 32 VBottom 2
WINDOW 3 32 32 VTop 2
SYMATTR InstName C2
SYMATTR Value 470nF
SYMBOL res 1056 1200 R90
WINDOW 0 0 56 VBottom 2
WINDOW 3 32 56 VTop 2
SYMATTR InstName Rf2
SYMATTR Value 4.7k
SYMBOL potentiometer 736 1296 R270
SYMATTR InstName U1
SYMATTR Value Rtot=500K wiper=.02
TEXT 1528 1096 Left 2 !.tran 10m
TEXT 1528 1048 Left 2 !.options maxstep=10u
TEXT 1528 1152 Left 2 !.fourier 1K V(a)
